<?xml version="1.0" encoding="UTF-8"?>

<!-- generated on 2025-05-01 13:23:37 by Eclipse SUMO duarouter Version 1.22.0
<duarouterConfiguration xmlns:xsi="http://www.w3.org/2001/XMLSchema-instance" xsi:noNamespaceSchemaLocation="http://sumo.dlr.de/xsd/duarouterConfiguration.xsd">

    <input>
        <net-file value="good_map.xml"/>
        <additional-files value="vtypes_for_routing.add.xml"/>
        <route-files value="mixed_1800_assigned.trips.xml"/>
    </input>

    <output>
        <output-file value="mixed_1800.rou.xml"/>
    </output>

    <report>
        <verbose value="true"/>
        <ignore-errors value="true"/>
    </report>

</duarouterConfiguration>
-->

<routes xmlns:xsi="http://www.w3.org/2001/XMLSchema-instance" xsi:noNamespaceSchemaLocation="http://sumo.dlr.de/xsd/routes_file.xsd">
    <vType id="car_medium" length="4.50" maxSpeed="15.00" vClass="passenger" accel="2.0" decel="4.5" sigma="0.5"/>
    <vehicle id="0" type="car_medium" depart="0.79" departLane="best" departSpeed="max">
        <route edges="41285075#1 34196435 -39184325 34196212 34195365#0 34195365#1 34192433 438697457#1 34194738 34189681 34190387#0 34195993 34191026 34192371 34192991#0 -319213021#2 -319213021#0 -375877951#3 -375877951#2 -375877951#1 -375877951#0 -54118122#1 34192739#0 34195426#0 921026629#0 -921026637#2 -921026637#1"/>
    </vehicle>
    <vType id="car_fast" length="4.50" maxSpeed="20.00" vClass="passenger" accel="3.0" decel="4.5" sigma="0.2"/>
    <vehicle id="1" type="car_fast" depart="1.47" departLane="best" departSpeed="max">
        <route edges="-34193793 34193793 34192848 375877951#1 375877951#2 375877951#3 319213021#0 319213021#1 34191099#0 34191099#2 34191720 34191262 34190736 34193554 34190674 34192053 -34192053"/>
    </vehicle>
    <vehicle id="2" type="car_fast" depart="1.58" departLane="best" departSpeed="max">
        <route edges="-34193294 34189534#0 34189534#1 34193294 34194491 -34194716#2 -34194716#1 -467771334#3 -467771334#1 -467771334#0 -467771332#2 -467771332#1 -467771332#0 -54118119#3 -54118119#2 -54118119#1 -319213021#2 -319213021#0 -375877951#3 -375877951#2 -375877951#1 -375877951#0 -54118122#1 -375877446#2 921026633 921026630#0 -921026631#1 -921026634"/>
    </vehicle>
    <vehicle id="3" type="car_fast" depart="1.92" departLane="best" departSpeed="max">
        <route edges="-34195365#0 34190055#1 34190685#0 34192433 438697457#1 34194738 34189681 34190387#0 34195993 34195636 34190030 34190925 34194566 34193657 -34193657"/>
    </vehicle>
    <vType id="car_slow" length="4.50" maxSpeed="13.90" vClass="passenger" accel="1.0" decel="4.5" sigma="0.8"/>
    <vehicle id="4" type="car_slow" depart="2.23" departLane="best" departSpeed="max">
        <route edges="34195331#0 -34195331#0 -34190925 -34190030 -34195636 -34195993 -34190387#1 -34189681 -34194739 -34196117#2 -34196117#1 -34196117#0 34196117#0"/>
    </vehicle>
    <vehicle id="5" type="car_medium" depart="2.24" departLane="best" departSpeed="max">
        <route edges="34190925 -34190925 -34190030 -34195636 -34195464 -34194016 -34194466 -34195895 -34193580 -34191959 34193255 -34193953 -34194091 -34194172 -34192192 34192393#0 34192393#1 34192739#0 34195426#0 34195426#1"/>
    </vehicle>
    <vehicle id="7" type="car_fast" depart="3.27" departLane="best" departSpeed="max">
        <route edges="439874773#2 439874777#0 439874777#1 439874777#2 439874777#3 375877951#1 375877951#2 375877951#3 319213021#0 319213021#1 54118119#0 54118119#2 54118119#3 467771332#0 467771332#1 467771332#2 467771334#0 467771334#1 467771334#2 319213020#0 319213020#2 319213020#3 375878257#0 375878257#1 54118120 158875098#1 375878275"/>
    </vehicle>
    <vehicle id="9" type="car_fast" depart="5.38" departLane="best" departSpeed="max">
        <route edges="34193553 -34196176 34194491 -34194716#2 -34194716#1 -467771334#3 -467771334#1 -467771334#0 -467771332#2 -467771332#1 -467771332#0 -54118119#3 -54118119#2 -54118119#1 -34192991#1 -34192371 -34194889 -34193616"/>
    </vehicle>
    <vehicle id="10" type="car_fast" depart="6.15" departLane="best" departSpeed="max">
        <route edges="-34192701 -34196374 -34196241 -34194716#2 -34194716#1 -467771334#3 -467771334#1 -467771334#0 -467771332#2 -467771332#1 -467771332#0 -54118119#3 -54118119#2 -54118119#1 -319213021#2 -319213021#0 -375877951#3 -375877951#2 -375877951#1 -375877951#0 -54118122#1 -375877446#2 -375877446#0 -46781468 -375877447 -454931172 -454931173 -375877430"/>
    </vehicle>
    <vehicle id="11" type="car_medium" depart="6.70" departLane="best" departSpeed="max">
        <route edges="-34195324 -34191720 -34191099#2 -34191099#1 -34192991#1 -34192371 -34191026 -34195993 -34190387#1 -34189681 -34194739 -34195379"/>
    </vehicle>
    <vehicle id="13" type="car_fast" depart="8.47" departLane="best" departSpeed="max">
        <route edges="76802412 375877951#2 375877951#3 319213021#0 319213021#1 -34192991#1 -34192371 -34191026 -34195993 -34190387#1 -34189681 -34194739 -34196117#2 -34196117#1 -34196117#0"/>
    </vehicle>
    <vehicle id="14" type="car_medium" depart="8.69" departLane="best" departSpeed="max">
        <route edges="34194913 34192991#0 -319213021#2 -319213021#0"/>
    </vehicle>
    <vehicle id="15" type="car_medium" depart="8.71" departLane="best" departSpeed="max">
        <route edges="34193422 -34194094 -34193616 -34194016 -34194466 -34195895 -34193580 -34191959 34193255 -34193953 -34194091 -34194172 34194172"/>
    </vehicle>
    <vehicle id="16" type="car_fast" depart="9.46" departLane="best" departSpeed="max">
        <route edges="-34190377#0 -34191333#1 34192413 -34195154 34196249 128546685 34192433 438697457#1 34194738 34189681 34190387#0 34195993 34191026 34192371 34192991#0 54118119#0 54118119#2 54118119#3 467771332#0 467771332#1 467771332#2 467771334#0 467771334#1 467771334#2 319213020#0 319213020#2 319213020#3 375878257#0 375878257#1 54118120 -34192194"/>
    </vehicle>
    <vehicle id="17" type="car_medium" depart="12.82" departLane="best" departSpeed="max">
        <route edges="-34196188 34192991#0 -319213021#2 -319213021#0 -375877951#3 -375877951#2 -375877951#1 -375877951#0 -54118122#1 -375877446#2 -375877446#0 -46781468 -375877447 -454931172 -454931173"/>
    </vehicle>
    <vType id="truck_light" length="12.00" maxSpeed="14.00" vClass="truck" accel="1.0" decel="3.5" sigma="0.6"/>
    <vehicle id="18" type="truck_light" depart="14.01" departLane="best" departSpeed="max">
        <route edges="34189104#0 34189104#1 34193553 -34196176 34194491 -34194716#2 -34194716#1 -467771334#3 -467771334#1 -467771334#0 -467771332#2 -467771332#1 -467771332#0 -54118119#3 -54118119#2 -54118119#1 -319213021#2 -319213021#0 -375877951#3 -375877951#2 -375877951#1 -375877951#0 -54118122#1 34192739#0 34195426#0 34195426#1 439874773#0 439874773#1"/>
    </vehicle>
    <vehicle id="19" type="car_fast" depart="14.81" departLane="best" departSpeed="max">
        <route edges="34194571 -43847561 -375878257#0 -319213020#3 -319213020#2 -319213020#1 34194716#0 34194716#2 34196241 -34196241"/>
    </vehicle>
    <vehicle id="20" type="truck_light" depart="14.91" departLane="best" departSpeed="max">
        <route edges="-34192053 -34190674 -34193554 -34193213 -54118119#1 -319213021#2 -319213021#0 -375877951#3 -375877951#2 -375877951#1 -375877951#0 -54118122#1 -375877446#2 -375877446#0 -46781468 -375877447 -454931172 -454931173 454931173 454931172"/>
    </vehicle>
    <vehicle id="21" type="car_medium" depart="15.35" departLane="best" departSpeed="max">
        <route edges="-34196030#1 -34196030#0 -34191992 34196125 34194676#0 34194676#1 34192393#0"/>
    </vehicle>
    <vehicle id="22" type="car_fast" depart="15.59" departLane="best" departSpeed="max">
        <route edges="-34194667 -34189692 -34195652#1 -34195652#0 319213021#0 -34190107 -34194094 -34193616 -34195545 -34189590 -34192596#2 -34192596#1"/>
    </vehicle>
    <vType id="bus_coach" length="14.00" maxSpeed="18.00" vClass="bus" accel="1.2" decel="3.0" sigma="0.4"/>
    <vehicle id="24" type="bus_coach" depart="19.57" departLane="best" departSpeed="max">
        <route edges="34192237 -34192591 -34195324 -34191720 -34191099#2 -34191099#1 54118119#0 54118119#2 54118119#3 467771332#0 467771332#1 467771332#2 467771334#0 467771334#1 467771334#2 -467771334#3 -467771334#1 -467771334#0"/>
    </vehicle>
    <vehicle id="25" type="car_fast" depart="20.36" departLane="best" departSpeed="max">
        <route edges="34190615#0 34190615#1 34193334 -34194566 -34190925 -34190030 -34195636 -34195464 -34194016 -34194466 34190241 34190270 -34192184 -34193480#1 -34193480#0 34192848 -375877951#0 -54118122#1 34192739#0 34195426#0 921026629#0 921026629#1 921026629#2 -921026636#2 -921026636#1 -921026638#0"/>
    </vehicle>
    <vehicle id="26" type="car_fast" depart="25.11" departLane="best" departSpeed="max">
        <route edges="34190270 -34190270 -34190241 34194466 34195590 34193072 34193015 34195652#0 34195652#1 34189692 34190287 34192237 34193486#0 34193486#1 34193486#2"/>
    </vehicle>
    <vehicle id="27" type="car_fast" depart="25.25" departLane="best" departSpeed="max">
        <route edges="-34194606 -34195554 -34191262 -34191720 -34191099#2 -34191099#1 -34192991#1 -34192371 -34191026 34195636 34190030 34190925 34195331#0 -34195331#0"/>
    </vehicle>
    <vehicle id="29" type="car_medium" depart="26.14" departLane="best" departSpeed="max">
        <route edges="-34190871 -34192053 -34190674 -34193554 -34193213 -54118119#1 -319213021#2 -319213021#0 -375877951#3 -375877951#2 -375877951#1 -375877951#0 -54118122#1 -375877446#2 921026633 921026630#0 -921026629#3"/>
    </vehicle>
    <vehicle id="30" type="truck_light" depart="26.38" departLane="best" departSpeed="max">
        <route edges="34194571 -43847561 -375878257#0 -319213020#3 -319213020#2 -319213020#1 -467771334#3 -467771334#1 -467771334#0 -467771332#2 -467771332#1 -467771332#0 -54118119#3 -54118119#2 -54118119#1 -34192991#1 -34192371 -34191026 -34195464 -34194016 -34194466 -34195895 -34193580 -34191959 -34190830"/>
    </vehicle>
    <vehicle id="31" type="car_slow" depart="26.45" departLane="best" departSpeed="max">
        <route edges="34190830 34191959 34193580 34195895 34194466 34194016 34195464 -34195993 -34190387#1"/>
    </vehicle>
    <vehicle id="32" type="car_medium" depart="27.57" departLane="best" departSpeed="max">
        <route edges="34190582#0 34196435 -39184325 34196212 34195365#0 34195365#1 34192433 438697457#1 34194738 34189681 34190387#0 34195993 34191026 34192371 -34194913 34190107 319213021#1"/>
    </vehicle>
    <vehicle id="33" type="bus_coach" depart="27.91" departLane="best" departSpeed="max">
        <route edges="34191099#0 34191099#2 -34190368 -34195652#1 -34195652#0 -34193015"/>
    </vehicle>
    <vehicle id="35" type="car_medium" depart="29.13" departLane="best" departSpeed="max">
        <route edges="-34191992 34196125 34194676#0 34194676#1 34192393#0 34192393#1 54118122#0 375877951#0 375877951#1 375877951#2 375877951#3 319213021#0 319213021#1 54118119#0 54118119#2 54118119#3 467771332#0 467771332#1 467771332#2 467771334#0 467771334#1 467771334#2 34194716#0 34194716#2 34196505 34194203#0 34194203#1 -34194203#1 -34194203#0"/>
    </vehicle>
    <vehicle id="36" type="truck_light" depart="29.38" departLane="best" departSpeed="max">
        <route edges="34191333#0 34192413 -34195154 34196249 128546685 34192433 438697457#1 34194738 34189681 34190387#0 34195993 -34195464 -34194016 -34194466 -34195895 -34193580 -34191959 34193255 -34191166"/>
    </vehicle>
    <vehicle id="37" type="car_medium" depart="30.78" departLane="best" departSpeed="max">
        <route edges="34189386#1 -34191793#0 -34193259 -34195117 -34196421 -34196353 -34193657 -34194566 -34190925 -34190030 -34195636 -34195993 -34190387#1 -34189681 -34194739 -34195379 -438697457#0 -34195365#1 -34195365#0 -34196212 39184325 34195558 34196435"/>
    </vehicle>
    <vType id="truck_heavy" length="14.00" maxSpeed="12.00" vClass="truck" accel="0.6" decel="3.5" sigma="0.7"/>
    <vehicle id="38" type="truck_heavy" depart="31.67" departLane="best" departSpeed="max">
        <route edges="-921026632 -921026629#1 -921026629#0 -34195426#0 -34192739#1 54118122#0 375877951#0 375877951#1 375877951#2 375877951#3 319213021#0 319213021#1 54118119#0 54118119#2 54118119#3 467771332#0 467771332#1 467771332#2 467771334#0 467771334#1 467771334#2 -34192741#1 -34193714 34195117 34190023 34191793#0 34189386#0"/>
    </vehicle>
    <vehicle id="39" type="car_medium" depart="31.80" departLane="best" departSpeed="max">
        <route edges="-921026635 -921026628#2 -921026628#1 -921026628#0 439874773#1 439874773#2 439874777#0 439874777#1 439874777#2 439874777#3 375877951#1 375877951#2 375877951#3 319213021#0 319213021#1 34191099#0 34191099#2 -34190368"/>
    </vehicle>
    <vehicle id="40" type="car_slow" depart="32.81" departLane="best" departSpeed="max">
        <route edges="-921026636#2 -921026639#0 921026637#2 -921026629#0 -34195426#0 -34192739#1 54118122#0 375877951#0 375877951#1 375877951#2 375877951#3 319213021#0 319213021#1 54118119#0 54118119#2 54118119#3 467771332#0 467771332#1 467771332#2 467771334#0 467771334#1 467771334#2 34194716#0 34194716#2 34196241 34196374"/>
    </vehicle>
    <vehicle id="41" type="car_fast" depart="34.47" departLane="best" departSpeed="max">
        <route edges="34194913 34192991#0 -319213021#2 -319213021#0 -375877951#3 -375877951#2 -375877951#1 -439874777#3 -439874777#2 -439874777#1"/>
    </vehicle>
    <vehicle id="42" type="car_fast" depart="35.67" departLane="best" departSpeed="max">
        <route edges="375877430 454931173 454931172 375877447 46781469 375877446#0 375877446#1 54118122#0 375877951#0 375877951#1 375877951#2 375877951#3 319213021#0 319213021#1 54118119#0 54118119#2 54118119#3 467771332#0 467771332#1 467771332#2 467771334#0 467771334#1 467771334#2 -34192741#1 -34195331#5 -34195331#4 34195331#4"/>
    </vehicle>
    <vehicle id="43" type="car_fast" depart="36.48" departLane="best" departSpeed="max">
        <route edges="34191166 -34193255 34191959 34193580 34195895 34194466 34195590 34193072 34193015 319213021#0 -34190107"/>
    </vehicle>
    <vehicle id="44" type="car_fast" depart="37.37" departLane="best" departSpeed="max">
        <route edges="-41285075#1 -41285075#0 41285075#0 41285075#1 -34190582#0"/>
    </vehicle>
    <vehicle id="45" type="car_fast" depart="37.59" departLane="best" departSpeed="max">
        <route edges="921026639#1 -921026630#1 -921026630#0 -921026633 375877446#1 54118122#0 375877951#0 375877951#1 375877951#2 375877951#3 319213021#0 319213021#1 54118119#0 54118119#2 54118119#3 467771332#0 467771332#1 467771332#2 467771334#0 467771334#1"/>
    </vehicle>
    <vehicle id="46" type="car_fast" depart="38.49" departLane="best" departSpeed="max">
        <route edges="-34190615#1 -34190615#0 34195631#0 34189831 -34190925 -34190030 34192982 34193690 34192176 54118119#2 54118119#3 467771332#0 467771332#1 467771332#2 467771334#0 467771334#1"/>
    </vehicle>
    <vehicle id="47" type="car_fast" depart="39.37" departLane="best" departSpeed="max">
        <route edges="-34189681 34189681 34190387#0 34195993 34191026 34192371 34192991#0 -319213021#2 -319213021#0 -375877951#3 -375877951#2 -375877951#1 -439874777#3 -439874777#2 -439874777#1 -439874777#0 439874772#0 439874772#1 439874772#2 460704108#0 -460704108#0"/>
    </vehicle>
    <vehicle id="48" type="car_medium" depart="39.67" departLane="best" departSpeed="max">
        <route edges="34195631#0 34189831 -34190925 -34190030 -34195636 34191026 34192371 34192991#0 34191099#0 34191099#2 34191720 34191262 34195554"/>
    </vehicle>
    <vehicle id="49" type="car_fast" depart="39.78" departLane="best" departSpeed="max">
        <route edges="921026634 921026631#1 -921026630#0 -921026633 375877446#1 54118122#0 375877951#0 375877951#1 375877951#2 375877951#3 319213021#0 319213021#1 54118119#0 34193213"/>
    </vehicle>
    <vehicle id="50" type="car_fast" depart="39.79" departLane="best" departSpeed="max">
        <route edges="-54118119#1 -319213021#2 -319213021#0 -375877951#3 -375877951#2 -375877951#1 -375877951#0 -54118122#1 34192739#0 34195426#0 921026629#0 -921026637#2 -921026637#1 921026638#0"/>
    </vehicle>
    <vehicle id="51" type="car_fast" depart="40.15" departLane="best" departSpeed="max">
        <route edges="-439874773#0 -34195426#1 439874769#0 439874769#1 439874769#2 439874769#3 439874777#2 439874775#0 439874775#1 439874765#0 439874765#1"/>
    </vehicle>
    <vehicle id="52" type="car_fast" depart="40.57" departLane="best" departSpeed="max">
        <route edges="439874777#3 -439874777#3 -439874777#2 -439874769#3 -439874769#2"/>
    </vehicle>
    <vType id="bus_city" length="14.00" maxSpeed="15.00" vClass="bus" accel="1.0" decel="3.0" sigma="0.5"/>
    <vehicle id="53" type="bus_city" depart="40.60" departLane="best" departSpeed="max">
        <route edges="34193953 -34193255 34191959 34193580 34195895 34194466 34195590 34193072 34193015 34195652#0 34195652#1 34189692 34190287 34192237 34193486#0"/>
    </vehicle>
    <vehicle id="54" type="car_medium" depart="41.56" departLane="best" departSpeed="max">
        <route edges="34190336 34192657 34190030 34190925 -34189831 34195523 34193334"/>
    </vehicle>
    <vehicle id="55" type="car_medium" depart="42.01" departLane="best" departSpeed="max">
        <route edges="-41285076#2 -41285076#1 -41285076#0 41285075#0 41285075#1 34196435 -39184325 34196212 34195365#0 34195365#1 34192433 438697457#1 34194738 34189681 34190387#0 34195993 -34195464 -34194016 -34194466 34190241 34190270 -34192184 -34193480#1 -34193480#0 -34193793 -34193510"/>
    </vehicle>
    <vehicle id="56" type="car_fast" depart="42.24" departLane="best" departSpeed="max">
        <route edges="34190270 -34190270 -34190241 34194466 34194016 34195464 34191026 34192371 34192991#0 34191099#0 34191099#2 34191720 34191262 34190736 34193554 34190674 34192053 34189825 34189996"/>
    </vehicle>
    <vehicle id="57" type="car_slow" depart="42.46" departLane="best" departSpeed="max">
        <route edges="34195154 -34195154 34196249 128546685 34192433 438697457#1 34194738 34189681 34190387#0 34195993 -34195464 -34194016 -34194466 -34195895 -34193580 -34191959 34193255 -34193953 -34194091 -34194172 -34192192 -34194676#1"/>
    </vehicle>
    <vehicle id="58" type="car_fast" depart="42.48" departLane="best" departSpeed="max">
        <route edges="-1039617496 -984122432#1 -984122432#0 -460704106 -460704108#1 -460704108#0 -439874772#2 -439874772#1 -439874772#0 439874777#0 439874777#1 439874777#2 439874777#3 375877951#1 375877951#2 375877951#3 319213021#0 319213021#1 54118119#0 54118119#2 54118119#3 467771332#0 467771332#1 467771332#2 467771334#0 467771334#1 467771334#2 34194716#0 34194716#2 -34194491 -34193294 -34189534#1 -34189534#0"/>
    </vehicle>
    <vehicle id="59" type="car_fast" depart="42.58" departLane="best" departSpeed="max">
        <route edges="-34196055 -34190674 -34193554 34193554"/>
    </vehicle>
    <vehicle id="60" type="bus_coach" depart="43.37" departLane="best" departSpeed="max">
        <route edges="34190377#0 34190377#1 -34190377#1 -34190377#0 -34191333#1 34192413 -34195154 34196249 128546685 -34195365#1 -34195365#0 34190055#1"/>
    </vehicle>
    <vehicle id="61" type="car_medium" depart="44.04" departLane="best" departSpeed="max">
        <route edges="375877951#1 375877951#2 375877951#3 319213021#0 319213021#1 54118119#0 -34192176 -34193690 -34192982 34190030 34190925 34195331#0 -34195331#0"/>
    </vehicle>
    <vehicle id="62" type="car_medium" depart="44.35" departLane="best" departSpeed="max">
        <route edges="-41285076#1 -41285076#0 41285075#0 41285075#1 34196435 -39184325 34196212 34195365#0 34195365#1 34192433 438697457#1 34194738 34189681 34190387#0 34195993 34191026 34192371 34192991#0 34191099#0 34191099#2 34191720 34191262 34195554 -34195554"/>
    </vehicle>
    <vehicle id="63" type="car_medium" depart="44.37" departLane="best" departSpeed="max">
        <route edges="54118119#0 54118119#2 54118119#3 467771332#0 467771332#1 467771332#2 467771334#0 467771334#1 467771334#2 -34192741#1 -34193714 -34196421 34194950"/>
    </vehicle>
    <vehicle id="64" type="truck_light" depart="46.01" departLane="best" departSpeed="max">
        <route edges="-34191947 -34195976#1 39184325 34195558 34196435"/>
    </vehicle>
    <vehicle id="65" type="car_slow" depart="46.14" departLane="best" departSpeed="max">
        <route edges="-46781468 -375877447 375877447 46781469 375877446#0 375877446#1 54118122#0 375877951#0 375877951#1 375877951#2 375877951#3 319213021#0 319213021#1 -34192991#1 -34192371 -34191026 -34195993 -34190387#1 -34189681 -34194739 -34195379 -438697457#0 -34195365#1 -34195365#0 -34196212 39184325 34195558"/>
    </vehicle>
    <vehicle id="66" type="car_fast" depart="46.80" departLane="best" departSpeed="max">
        <route edges="439874769#3 439874777#2 439874777#3 375877951#1 375877951#2 375877951#3 319213021#0 319213021#1 34191099#0 34191099#2 34191720 34191262 34190736 34193554 34190674 34192053 34189825 -34193483 -34193553 -34189104#1"/>
    </vehicle>
    <vehicle id="67" type="car_fast" depart="48.26" departLane="best" departSpeed="max">
        <route edges="-34194203#1 -34194203#0 -34189996 -34189825 -34192053 34196055 -34195529 -34194357 34194606 -34195549 -34192237 34191661 169240598 -169240598 -34191661"/>
    </vehicle>
    <vehicle id="68" type="car_fast" depart="48.48" departLane="best" departSpeed="max">
        <route edges="-34189692 -34195652#1 -34195652#0 319213021#0 319213021#1 54118119#0 54118119#2 54118119#3 467771332#0 467771332#1 467771332#2 467771334#0 467771334#1 467771334#2 -34192741#1 -34193714 34195117 34190023 34191793#0 34191793#1"/>
    </vehicle>
    <vehicle id="69" type="car_fast" depart="49.34" departLane="best" departSpeed="max">
        <route edges="34194566 34193657 34196353 34196421 34193714 34192741#0 34194716#0 34194716#2 34196505 -34195802 -34190257"/>
    </vehicle>
    <vehicle id="70" type="car_fast" depart="51.26" departLane="best" departSpeed="max">
        <route edges="34195331#3 34195331#4 34195331#5 34192741#0 -467771334#3 -467771334#1 -467771334#0 -467771332#2 -467771332#1 -467771332#0 -54118119#3 -54118119#2 -54118119#1 -319213021#2 -319213021#0 -375877951#3 -375877951#2 -375877951#1 -439874777#3 -439874777#2 -439874769#3 -439874769#2 -439874769#1 -439874767 -439874778#1"/>
    </vehicle>
    <vehicle id="73" type="car_fast" depart="52.69" departLane="best" departSpeed="max">
        <route edges="34189104#1 34193553 -34196176 34194491 -34194716#2 -34194716#1 -467771334#3 -467771334#1 -467771334#0 -467771332#2 -467771332#1 -467771332#0 -54118119#3 -54118119#2 -54118119#1 -34192991#1 -34192371 -34191026 -34195993 -34190695 -34195878"/>
    </vehicle>
    <vehicle id="74" type="car_medium" depart="52.91" departLane="best" departSpeed="max">
        <route edges="375877430 454931173 454931172 375877447 46781469 375877446#0 375877446#1 54118122#0 375877951#0 375877951#1 375877951#2 375877951#3 319213021#0 319213021#1 -34192991#1 -34192371 -34191026 -34195993 -34190387#1 -34189681 -34194739 -34195379 -438697457#0 -128546685 -34196248 34195154"/>
    </vehicle>
    <vehicle id="75" type="car_fast" depart="53.15" departLane="best" departSpeed="max">
        <route edges="-34196505 -34194716#2 -34194716#1 -34192741#1 -34193714 34195117 34190023 34191793#0 34191793#1"/>
    </vehicle>
    <vehicle id="76" type="bus_city" depart="53.34" departLane="best" departSpeed="max">
        <route edges="34193616 34194889 -34191026 -34195993 -34190387#1 -34189681 -34194739 -34195379 -438697457#0 -34190685#0 -34191947 -34196469"/>
    </vehicle>
    <vehicle id="77" type="car_medium" depart="53.67" departLane="best" departSpeed="max">
        <route edges="-34196117#1 -34196117#0 34196117#0 34196117#1 34196117#2 34194738 34189681 34190387#0 34195993 34191026 34192371 34192991#0 54118119#0 54118119#2 54118119#3 467771332#0 467771332#1 467771332#2 467771334#0 467771334#1 467771334#2 -34192741#1"/>
    </vehicle>
    <vehicle id="78" type="car_fast" depart="53.67" departLane="best" departSpeed="max">
        <route edges="34193486#1 34193486#2 34193486#3 34193486#4 -34193486#4 -34193486#3 -34193486#2 -34193486#1 -34193486#0 -34192237 -34190287 -34189692 -34195652#1 -34195652#0 -375877951#3 -375877951#2 -375877951#1 -375877951#0 -54118122#1 -34192393#2 -34192393#0 -34194676#1 -34194676#0"/>
    </vehicle>
    <vehicle id="79" type="car_fast" depart="53.92" departLane="best" departSpeed="max">
        <route edges="-34196117#0 34196117#0 34196117#1 34196117#2 -34195379 -438697457#0 -128546685 -34196248 34195154 -34192413 34191333#1 34190377#0 34190377#1 -34190377#1"/>
    </vehicle>
    <vehicle id="80" type="car_medium" depart="54.02" departLane="best" departSpeed="max">
        <route edges="62338846#1 -34195331#0 -34190925 -34190030 -34195636 -34195464 -34194016 -34194466 -34195895 -34193580 -34191959 34193255 -34193953 -34194091 -34194172 -34192192 34192393#0 34192393#1 34192739#0 34195426#0 439874769#0 439874769#1"/>
    </vehicle>
    <vehicle id="83" type="truck_heavy" depart="56.89" departLane="best" departSpeed="max">
        <route edges="921026631#0 921026631#1 -921026630#0 -921026633 375877446#1 54118122#0 375877951#0 375877951#1 375877951#2 375877951#3 319213021#0 319213021#1 54118119#0"/>
    </vehicle>
    <vehicle id="84" type="car_fast" depart="57.02" departLane="best" departSpeed="max">
        <route edges="34193580 -34194299 -34191723#1 -34191723#0 -34195188 -34196048 -34196125 34191992 34196030#0"/>
    </vehicle>
    <vehicle id="85" type="car_fast" depart="57.68" departLane="best" departSpeed="max">
        <route edges="-34196505 -34194716#2 -34194716#1 -467771334#3 -467771334#1 -467771334#0"/>
    </vehicle>
    <vehicle id="86" type="bus_coach" depart="58.34" departLane="best" departSpeed="max">
        <route edges="-34192991#1 -34194913 34190107 -319213021#0 -375877951#3 -375877951#2 -375877951#1 -439874777#3 -439874777#2 -439874769#3"/>
    </vehicle>
    <vehicle id="87" type="car_medium" depart="58.46" departLane="best" departSpeed="max">
        <route edges="34195426#1 439874773#0 921026628#0 921026628#1 921026636#0 921026636#1 -921026639#0"/>
    </vehicle>
    <vehicle id="88" type="car_fast" depart="59.68" departLane="best" departSpeed="max">
        <route edges="41285075#0 41285075#1 34196435 -39184325 34196212 34195365#0 34195365#1 34192433 438697457#1 -34196117#2 -34196117#1 -34196117#0"/>
    </vehicle>
    <vehicle id="90" type="car_fast" depart="60.34" departLane="best" departSpeed="max">
        <route edges="454931171 -41923560 41923561 375877430 454931173 454931172 375877447 46781469 375877446#0 375877446#1 54118122#0 375877951#0 375877951#1 375877951#2 375877951#3 319213021#0 -34190107 -34194094 -34193616 -34195545 34190695"/>
    </vehicle>
    <vehicle id="91" type="car_medium" depart="62.13" departLane="best" departSpeed="max">
        <route edges="921026630#1 -921026639#1 921026636#2 -921026629#2 -921026629#1 -921026629#0 -34195426#0 -34192739#1 54118122#0 375877951#0 -34192848 34193480#0 34193480#1 34190669#0"/>
    </vehicle>
    <vehicle id="93" type="car_medium" depart="62.91" departLane="best" departSpeed="max">
        <route edges="-34194172 -34192192 34192393#0 34192393#1 54118122#0 375877951#0 375877951#1 375877951#2 375877951#3 319213021#0 319213021#1 54118119#0 34193213"/>
    </vehicle>
    <vehicle id="94" type="car_fast" depart="64.14" departLane="best" departSpeed="max">
        <route edges="460704108#0 -460704108#0 -439874772#2 -439874772#1 -439874772#0 439874777#0 439874777#1 439874777#2 439874777#3 375877951#1 375877951#2 375877951#3 319213021#0 319213021#1 -34192991#1 -34192371 -34191026 -34195993 -34190387#1 -34189681 -34194739 -34195379 -438697457#0 -34195365#1 -34195365#0 -34196212 39184325 34195558 -41285075#1 -41285075#0 41285076#0"/>
    </vehicle>
    <vehicle id="95" type="car_fast" depart="64.25" departLane="best" departSpeed="max">
        <route edges="-34191262 -34191720 -34191099#2 -34191099#1 -319213021#2 -34190107 34194913"/>
    </vehicle>
    <vehicle id="96" type="bus_coach" depart="64.78" departLane="best" departSpeed="max">
        <route edges="-34193714 -34196421 -34196353 -34193657 -34194566 -34190925 -34190030 -34195636 -34195464"/>
    </vehicle>
    <vehicle id="97" type="car_medium" depart="65.57" departLane="best" departSpeed="max">
        <route edges="34193616 -34193533 -34195590 -34194466 -34195895 -34193580 -34191959 34193255 -34193953 -34194091 -34194172 -34192192 -34194676#1 -34194676#0 -34196125 34191992"/>
    </vehicle>
    <vehicle id="98" type="bus_coach" depart="65.91" departLane="best" departSpeed="max">
        <route edges="439874766#0 -439874766#0 -439874775#1 -439874775#0 439874777#3 375877951#1 375877951#2 375877951#3 34195652#0 34195652#1 34189692 -34193659"/>
    </vehicle>
    <vehicle id="99" type="truck_heavy" depart="66.80" departLane="best" departSpeed="max">
        <route edges="34195545 34193616 34194094 34194913"/>
    </vehicle>
    <vehicle id="100" type="car_fast" depart="68.67" departLane="best" departSpeed="max">
        <route edges="34190694 34196125 34194676#0 34194676#1 34192393#0 34192393#1 34192739#0 34195426#0 34195426#1 439874773#0 439874773#1 439874773#2 439874772#0 439874772#1 439874772#2 460704108#0 460704108#1 460704106 460704107 984122432#1 -984122432#1"/>
    </vehicle>
    <vehicle id="101" type="car_slow" depart="68.90" departLane="best" departSpeed="max">